****************************************************************        00000100
*        PARSING TABLES FOR COMMAND ANALYSIS                            00000200
****************************************************************        00000300
         MACRO                                                          00000400
&NAME    CTSPARL &OP,&C=,&EQ=,&NE=,&RC=                                 00000500
         AIF   ('&OP' EQ 'NOSEP').NOSEP                                 00000600
         AIF   ('&OP' NE '').EXIT                                       00000700
         AIF   ('&NE' EQ '').NEXTLINE                                   00000800
.*                                                                      00000900
.*       STANDARD LINE                                                  00001000
.*                                                                      00001100
&NAME    DC    C&C,AL4(&EQ),AL4(&NE)                                    00001200
         AGO   .REALEXIT                                                00001300
.*                                                                      00001400
.*       NEXT LINE                                                      00001500
.*                                                                      00001600
.NEXTLINE ANOP  ,                                                       00001700
.*                                                                      00001800
&NAME    DC    C&C,AL4(&EQ),AL4(0)                                      00001900
         AGO   .REALEXIT                                                00002000
.*                                                                      00002100
.*       SEPERATOR SKIP FLAG                                            00002200
.*                                                                      00002300
.NOSEP   ANOP  ,                                                        00002400
&NAME    DC    XL1'FF',AL4(0),AL4(&NE)                                  00002500
         AGO   .REALEXIT                                                00002600
.*                                                                      00002700
.*       EXIT LINE                                                      00002800
.*                                                                      00002900
.EXIT    ANOP  ,                                                        00003000
&NAME    DC    XL1'00',AL4(&RC),AL4(0)                                  00003100
.REALEXIT ANOP  ,                                                       00003200
         MEXIT                                                          00004000
         MEND                                                           00010000
