         MACRO                                                          00010000
&NAME    BEGIN &ID,&R1,&R2,&R3,&R4,&R5,&R6,&R7,&R8,&R9,&R10,&EQUR=NO    00020000
         GBLA  &NBYTESB                                                 00030000
         GBLC  &BEGNAME                                                 00040000
         LCLA  &N                                                       00050000
         LCLC  &REG,&R(10)                                              00060000
         AIF   ('&EQUR' EQ 'NO').NOEQUR                                 00070000
         AIF   ('&EQUR' EQ 'YES' OR '&EQUR' EQ 'ALL').OK                00080000
         MNOTE 4,'EQUR=&EQUR IS ILLEGAL. EQUR=YES ASSUMED.'             00090000
.OK      H2EQUR                                                         00100000
         AIF   ('&EQUR' NE 'ALL').NOEQUR                                00110000
F0       EQU   0                                                        00120000
F2       EQU   2                                                        00130000
F4       EQU   4                                                        00140000
F6       EQU   6                                                        00150000
.NOEQUR  CNOP  0,4                                                      00160000
         AIF   (T'&R1 EQ 'O').NEXT                                      00170000
&N       SETA  1                                                        00180000
.LOOP1   ANOP                                                           00190000
&R(&N)   SETC  ','.'&SYSLIST(&N+1)'                                     00200000
&N       SETA  &N+1                                                     00210000
         AIF   (&N LE N'&SYSLIST-1).LOOP1                               00220000
.NEXT    USING *,13&R(1)&R(2)&R(3)&R(4)&R(5)&R(6)&R(7)&R(8)&R(9)&R(10)  00230000
&BEGNAME SETC  '&NAME'                                                  00240000
&NBYTESB SETA  72                                                       00250000
         AIF   (T'&ID EQ 'O').NOID                                      00260000
         AIF   ('&ID' EQ '*').CSECT                                     00270000
&REG     SETC  '&ID'                                                    00280000
&N       SETA  K'&ID                                                    00290000
.NOP     ANOP                                                           00300000
&NBYTESB SETA  (&N+2)/2*2+72                                            00310000
.NOID    ANOP                                                           00320000
&NAME    B     &NBYTESB.(0,15)                                          00330000
         DC    17F'0'                                                   00340000
         AIF   (T'&ID EQ 'O').NODC                                      00350000
         DC    AL1(&N)                                                  00360000
         DC    C'&REG'                                                  00370000
.NODC    ST    13,4(0,15)                                               00380000
         ST    15,8(0,13)                                               00390000
         STM   14,12,12(13)                                             00400000
         LR    13,15                                                    00410000
         AIF   (T'&R1 EQ 'O').ONLY13                                    00420000
&N       SETA  2                                                        00430000
&REG     SETC  '13'                                                     00440000
         LA    15,4095                                                  00450000
.LOOP2   LA    &SYSLIST(&N),1(15,&REG)                                  00460000
&REG     SETC  '&SYSLIST(&N)'                                           00470000
&N       SETA  &N+1                                                     00480000
         AIF   (&N LE N'&SYSLIST).LOOP2                                 00490000
         AGO   .ONLY13                                                  00500000
.CSECT   AIF   ('&SYSECT' EQ '').NAME                                   00510000
&REG     SETC  '&SYSECT'                                                00520000
.LENGTH  ANOP                                                           00530000
&N       SETA  1                                                        00540000
.LOOP3   AIF   ('&REG'(1,&N) EQ '&REG').NOP                             00550000
&N       SETA  &N+1                                                     00560000
         AGO   .LOOP3                                                   00570000
.NAME    ANOP                                                           00580000
&REG     SETC  '&NAME'                                                  00590000
         AGO   .LENGTH                                                  00600000
.ONLY13  MEND                                                           00610000
