         MACRO                                                          00010000
&NAME    BRTRN &RC,&REGS=(14,12)                                        00020000
         GBLA  &NBYTESB                                                 00030000
         GBLC  &BEGNAME                                                 00040000
         AIF   ('&BEGNAME' EQ '').NONAME                                00050000
&NAME    MVC   &BEGNAME.(4),IEZ&SYSNDX.I                                00060000
         L     13,4(0,13)                                               00070000
         AGO   .NAME                                                    00080000
.NONAME  ANOP                                                           00090000
&NAME    L     13,4(0,13)                                               00100000
.NAME    AIF   (T'&RC EQ 'O').NORC                                      00110000
         RETURN &REGS,T,RC=&RC                                          00120000
         AGO   .JUMP                                                    00130000
.NORC    RETURN &REGS,T                                                 00140000
.JUMP    AIF   ('&BEGNAME' EQ '').LAST                                  00150000
IEZ&SYSNDX.I B     &NBYTESB.(0,15)                                      00160000
.LAST    MEND                                                           00170000
