         MACRO                                                          00010000
&NAME    CTSEQUR  &A,&Z,&R=R,&BIT=                                      00020000
         GBLB     &H2EQUR#                                              00030000
         LCLA  &X,&Y,&F                                                 00040000
         ACTR  60                                                       00050000
         AIF ('&R' NE 'R').NO                                           00060000
         AIF  (&H2EQUR#).END                                            00070000
&H2EQUR#  SETB  1                                                       00080000
.NO      ANOP                                                           00090000
      AIF   (T'&A EQ 'O').OMIT     FIRST REG. IS OMITTED                00100000
      AIF   (T'&A NE 'N').SOF      FIRST REG. NOT NUMERIC               00110000
         AIF   (&A GT 15).SOF2                                          00120000
&X       SETA  &A                                                       00130000
.*      CHECKING NEXT OPERAND (SECOND REGISTER)                         00140000
.AIF2    AIF   (T'&Z EQ 'O').OMIT2                                      00150000
         AIF   (T'&Z NE 'N').SOF                                        00160000
         AIF   (&Z GT 15).SOF2                                          00170000
&Y       SETA  &Z                                                       00180000
.AIF3    AIF   (K'&R GT 6).SOF3    REG. NAME LENGTH                     00190000
         AIF   (K'&BIT GT 7).SOF3    BITS EQUATES NAME LENGTH           00200000
         AIF   ('&NAME' NE '').NULL                                     00210000
.SUC     ANOP                                                           00220000
         SPACE                                                          00230000
****************************                                            00240000
*                          *                                            00250000
*  EQUATES FOR REGISTERS:  *                                            00260000
*                          *                                            00270000
****************************                                            00280000
         SPACE                                                          00290000
&Y       SETA  &Y+1                                                     00300000
.BEGIN   ANOP                                                           00310000
&R&X     EQU   &X                                                       00320000
&X       SETA  &X+1                                                     00330000
         AIF   (&X EQ &Y).END                                           00340000
         AIF   (&X LT 16).BEGIN    CONTINUE WITH R1... EQUATES          00350000
&X       SETA  0                                                        00360000
         AGO   .BEGIN                                                   00370000
.*       BITS EQUATES ROUTINE                                           00380000
.END     AIF   (T'&BIT EQ 'O').SOFM  NO BIT EQUATES REQUESTED           00390000
&X       SETA  0                                                        00400000
&F       SETA  128                                                      00410000
         SPACE                                                          00420000
**********************                                                  00430000
*                    *                                                  00440000
*  EQUATES FOR BITS  *                                                  00450000
*                    *                                                  00460000
**********************                                                  00470000
         SPACE                                                          00480000
.AN      ANOP                                                           00490000
&BIT&X   EQU   &F                                                       00500000
         AIF   (&F EQ 1).OUT                                            00510000
&F       SETA  &F/2                                                     00520000
&X       SETA  &X+1                                                     00530000
         AGO   .AN                                                      00540000
.OUT     ANOP                                                           00550000
&BIT.A   EQU   255                                                      00560000
.SOFM    ANOP                                                           00570000
         MEXIT                                                          00580000
.NULL    MNOTE *,'WHAT IS THIS NAME FOR?'                               00590000
&NAME    EQU   *                                                        00600000
         AGO   .SUC                                                     00610000
.OMIT    ANOP                                                           00620000
&X       SETA  0                                                        00630000
         AGO   .AIF2                                                    00640000
.SOF     MNOTE 4,'OPERAND NOT NUMERIC'                                  00650000
         MEXIT                                                          00660000
.SOF2    MNOTE 4,'UNKNOWN REGISTER'                                     00670000
         MEXIT                                                          00680000
.OMIT2   ANOP                                                           00690000
&Y       SETA  15                                                       00700000
         AGO   .AIF3                                                    00710000
.SOF3    MNOTE 4,'OPERAND TOO LONG'                                     00720000
         MEND                                                           00730000
