* THE MACRO PROVIDES MESSAGE ISSUING TO IOALOG, OPERATOR CONSOLE        00001000
* AND/OR REGULAR OUTPUT FILE. ROUT= OPERAND DEFINES ONE OR MORE OF      00002000
* THESE DESTINATIONS.                                                   00003000
*                                                                       00003100
* THE MACRO IS REENTERANT.                                              00003200
*                                                                       00003300
* WRITING TO LOG REQUIRES TYPE PARAMETER (SEE MEMBER CTDLGD FOR LIST    00003400
* OF AVAILABLE TYPES).                                                  00003500
* LOG MUST BE OPENED (IT CAN BE DONE BY IOALOGOP MACRO). NEEDED WORK    00003600
* AREAS CAN BE RESERVED IN DSECT OR IN CALLING PROGRAM ITSELF BY        00003700
* IOALOGDS MACRO. IOALOGCL CAN BE USED FOR CLOSING THE LOG.             00003800
* MCT MUST BE ADDRESSABLE FOR THE MACRO. FIELDS MCTCHN AND MCTWLG       00003900
* MUST BE FILLED (IT'S DONE BY CT?INI ROUTINE OR BY IOALOGOP MACRO).    00004000
*                                                                       00005000
* WRITING TO OUTPUT FILE REQUIRES OPENED DCB (IT'S NAME SHOULD BE GIVEN 00006000
* IN DCB= OPERAND) WITH RECFM=FBA.                                      00007000
* OPERAND MONITOR=YES PROVIDES SETTING AMODE=24 BEFORE PUT OPERATION    00008000
* AND RETURNING TO AMODE=31 AFTER IT. MCTADDR FIELD MUST BE ADDRESSABLE 00009000
*                                                                       00010000
.*------------------   CHANGE SUMMARY -------------------------------*  00010100
.*                                                                   *  00010200
.* WS10075 04.11.19 NURITY CORRECT MESSAGE LENGTH FOR ROUT=NO        *  00010301
.*                                                                   *  00010400
.*-------------------------------------------------------------------*  00010500
         MACRO                                                          00011000
&NAME    CTSMSG2    &TYPE=' ',        ID OF SENDER                     *00012000
               &CODE=,                EXTERNAL SYMBOL IDENTFY MSG      *00013000
               &ROUT=,                WTO/WTOR/LOG/OUT                 *00013100
               &URGENT=R,             AMOUNT OF URGENT                 *00013200
               &TIME=,                HOW TO GET   TIME                *00013300
               &URGENC=,              AMOUNT OF URGENT                 *00013400
               &DATE=,                HOW TO GET   DATE                *00013500
               &LDATE=,               LOGICAL  DATE                    *00013600
               &ECB=0,                IF WTOR                          *00013700
               &AREAANS=,             ANSWER AREA (WTOR)               *00013800
               &ANSLEN=3,             ANSWER LENGTH (WTOR)       MM001 *00013900
               &USER==CL8'GENERAL',   TYPE OF USER                     *00014000
               &ROUTCDE=,             WTO/WTOR USE                     *00014100
               &REG=,                 REGISTER  POINTS  WORK AREA      *00014200
               &MCTADDR=,             MCT  ADDR                        *00014300
               &PLANT=,               PLANT  STRINGS IN MESSAGES       *00014400
               &LOGEP=,               ENTRY POINT TO CTMLOG            *00014500
               &CODEMSG=,             IF  INTERNAL  MESSEGES           *00014600
               &MSG=,                 BUILTIN MSG                      *00014700
               &PROC=,                PROC OF JOB (TYPE=I)             *00014800
               &PROCT=,               PROCT OF JOB (TYPE=I)            *00014900
               &IDATE=,               LDATE OF JOB (TYPE=I)            *00015000
               &MEMBER=,              MEMBER NAME OF JOB (TYPE=I)      *00015100
               &ASA=C' ',             ASA  CODE                        *00015200
               &DOMA=,                AREA TO STORE WTOR-ID       W272 *00015300
               &JOBNM=,               JOBNAME      (TYPE=J)            *00015400
               &CTGRY=,               CATEGORY     (TYPE=E,F....  CTD  *00015500
               &REPNAME=,             REPORT NAME  (TYPE=F....    CTD  *00015600
               &WTOCON=CTM,           WTO CONSTANT                CTD  *00015700
               &JOBID=,               JOBID        (TYPE=J)            *00015800
               &RAREA=RAREA,          WORK AREA 272 BYTES LONG         *00015900
               &LOGEPA=MCTCHN,        LOG ROUTINE ADDRESS         LN001*00016000
               &HANDLE=MCTWLG,        HANDLE ADDRESS              LN001*00016100
               &AREA=LOGAREA,         LOG AREA CL(LOGENTL)        LN001*00016200
               &DCB=DCBOUT,           DCB ADDRESS                 LN001*00016300
               &MONITOR=NO,           CHANGE AMOD FOR ROUT=OUT    LN001*00016400
               &SMFID=,               SMFID                      *CTO  *00016500
               &GROUP=,               GROUP                      *CTO  *00016600
               &CONSID=,              CONSOLE-ID BYTE                  *00016700
               &LONG=                 MESSAGE LENGTH 102/126 (DFLT 102) 00016800
.*********************************************************************  00016900
.***                                                              ****  00017000
.***  SA-AGENT SENDING MESSAGES MACRO                             ****  00017100
.***                                                              ****  00017200
.***  SA-AGENT RELEASE 3.0.0                                      ****  00017300
.***                                                              ****  00017400
.***  (C) COPYRIGHT 1996-1998 EAGLEEYE CONTROL SOFTWARE, LTD.     ****  00017500
.***                                                              ****  00017600
.*********************************************************************  00017700
         LCLA   &MONETYP,&I,&J,&LN                                      00017800
         LCLB   &H2TIME                                                 00017900
         LCLC   &CHARCD,&WTO,&MSGS                                      00018000
&NAME    DS    0H                                                       00019000
.*-------------------------------------------------------------------*  00020000
.*       POINT TO MESSAGE TEXT                                       *  00021000
.*-------------------------------------------------------------------*  00021100
         AIF   ('&CODEMSG' EQ '').TAKECOD                         MM002 00021200
         L     R1,=A(&CODEMSG)                                          00021300
&CHARCD  SETC  '&CODEMSG'                                               00021400
         AGO   .MOVMSG                                                  00021500
.TAKECOD AIF   ('&CODE' EQ '').TAKEMSG                                  00021600
         EXTRN &CODE                                                    00021700
         L     R1,=A(&CODE)                                             00021800
&CHARCD  SETC  '&CODE'                                                  00021900
         AGO   .MOVMSG                                                  00022000
.TAKEMSG IOADCD A,&MSG,REG=1               LOAD MSG ADDRESS             00023000
&CHARCD  SETC  '&MSG'                                                   00023100
.*--------------------------------------------------------------------* 00023200
.*       MOVE MESSAGE TEXT                                            * 00023300
.*--------------------------------------------------------------------* 00023400
.MOVMSG  ANOP                                                           00023500
&LN      SETA  102                                                      00023600
         AIF   ('&LONG' EQ '' OR '&LONG' EQ 'NO').NOLONG1               00023700
&LN      SETA  126                                                      00023800
.NOLONG1 ANOP                                                           00023900
&MSGLN   SETC  '158'                                                    00024000
&WTOR    SETC  '&RAREA'                                                 00024100
&WTO     SETC  '8+&WTOR'                                                00024200
&MSGS    SETC  '5+&WTO'                                                 00024300
&SAVTIME SETC  '7+&MSGLN+&MSGS'                                         00024400
&MSGCODE SETC  '16+&SAVTIME'                                            00024500
&OUTW    SETC  '7+&MSGCODE'                                             00024600
&OUT     SETC  '0-11+&MSGS'                                             00024700
&ROUTC   SETC  '&ROUTCDE'                                               00024800
         MVC   &MSGS.(&MSGLN+7),0(R1)                                   00024900
         MVC   &MSGCODE.(7),0(R1) SAVE MSG CODE FOR WTO/OUT OP          00025000
.*--------------------------------------------------------------------* 00025100
.*       HANDLE PLANT                                                 * 00025200
.*--------------------------------------------------------------------* 00025300
.PLANT   AIF   ('&PLANT' EQ '').TIMED                                   00025400
.LOOP1   ANOP                                                           00025500
&I       SETA   &I+2                                                    00025600
         AIF    (&I  GT   N'&PLANT).TIMED                               00025700
&J       SETA   &I/2                                                    00025800
         AIF    ('&CODE' EQ '').L14                                     00025900
         EXTRN   &CHARCD.&J                                             00026000
.L14     ANOP                                                           00026100
         LA    R14,&MSGS                        @T                      00026200
         A     R14,=A(&CHARCD.&J-&CHARCD)       @T                      00026300
         MVC   0(&PLANT(&I-1),R14),&PLANT(&I)   @T                      00026400
         AGO   .LOOP1                                                   00026500
.*--------------------------------------------------------------------* 00026600
.*       CHECK ROUT                                                   * 00026700
.*--------------------------------------------------------------------* 00026800
.TIMED   AIF   ('&ROUT' NE '').LOOPTYP                                  00026900
         LA    R1,&MSGS                                                 00027000
.LOOPTYP ANOP                                                           00027100
&MONETYP SETA  &MONETYP+1                                               00027200
         AIF   (&MONETYP  GT   N'&ROUT).END                             00027300
         AIF   ('&ROUT(&MONETYP)' EQ   'WTO').WTO                       00027400
         AIF   ('&ROUT(&MONETYP)' EQ  'WTO2').WTO2                      00027500
         AIF   ('&ROUT(&MONETYP)' EQ   'WTOR').WTOR                     00027600
         AIF   ('&ROUT(&MONETYP)' EQ  'WTOR2').WTOR2                    00027700
         AIF   ('&ROUT(&MONETYP)' EQ  'NO').NOROUT @T LEAVE MSG IN BUFF 00027800
         AIF   ('&ROUT(&MONETYP)' EQ   'LOG').LOG                       00027900
         AIF   ('&ROUT(&MONETYP)' EQ   'OUT').OUT                       00028000
         MNOTE 8,'INVALID ROUT=&ROUT(&MONETYP)'                         00028100
         AGO   .LOOPTYP                                                 00028200
.*--------------------------------------------------------------------* 00028300
.*       ROUT=NO                                                      * 00028400
.*--------------------------------------------------------------------* 00028500
.NOROUT  ANOP                                      @T                   00028600
         LA    R1,&MSGS                            @T            MM002  00028700
         MVC   &RAREA+2(7),&MSGCODE      ERRCODE   @T                   00028800
         MVI   &RAREA+2+7,C' '                                    LN001 00028900
         MVC   &RAREA+2+8(&MSGLN),7(R1)     MSG BODY                    00029000
*WS10075 MVC   &RAREA.(2),=Y(&LN+2)      LENGTH                   PN001 00029201
         MVC   &RAREA.(2),=Y(&MSGLN+8)   MSG LENGTH.           WS10075  00029301
         AIF   ('&WTOCON' EQ '').NOPREF                          NS001  00029400
         MVC   &RAREA+2(3),=C'&WTOCON'   PREFIX    @T                   00029500
.NOPREF  AGO   .LOOPTYP                                                 00029600
.*--------------------------------------------------------------------* 00029700
.*       ROUT=WTO                                                     * 00029800
.*--------------------------------------------------------------------* 00029900
.WTO     AIF   ('&CONSID' EQ '').WTORT                                  00030000
         SR    R0,R0                                                    00030100
         IC    R0,&CONSID                                               00030200
         MVC   &WTO.(4),=AL2(&LN,16384)      LENGTH & MCSFLAG=REG0      00031000
         AGO   .WTOWRT                                                  00031100
.WTORT   AIF   ('&ROUTC' NE '').WTOALL                                  00031200
&ROUTC   SETC  '=X''00008000'''                      ROUTCDE=1          00031300
.WTOALL  ICM   R14,15,&WTO+4+&LN                                        00031400
         MVC   &WTO+4+&LN.(4),&ROUTC                                    00031500
         MVC   &WTO.(4),=AL2(&LN+4,32768)   LENGTH & MCSFLAG            00031600
.WTOWRT  MVC   &WTO+4(7),&MSGCODE                                       00031700
         MVI   &WTO+4+7,C' '                                            00031800
         AIF   ('&WTOCON' EQ '').NOPREF1                         NS001  00031900
         MVC   &WTO+4(3),=C'&WTOCON'                                    00032000
.NOPREF1 ANOP                                                           00033000
         WTO   MF=(E,&WTO)                                              00034000
         AIF   ('&CONSID' NE '').LOOPTYP                                00035000
         STCM  R14,15,&WTO+4+&LN                                        00035100
         AGO   .LOOPTYP                                                 00035200
.*--------------------------------------------------------------------* 00035300
.*       ROUT=WTO2                                              PN003 * 00035400
.*--------------------------------------------------------------------* 00035500
.WTO2    ANOP                                                           00035600
&ROUTC   SETC  '=X''40008000'''                     DESC=2,ROUTCDE=1    00035700
         AGO   .WTOALL                                                  00035800
.*--------------------------------------------------------------------* 00035900
.*       ROUT=WTOR                                                    * 00036000
.*--------------------------------------------------------------------* 00037000
.WTOR    AIF   ('&CONSID' EQ '').WTORRT                                 00038000
         SR    R0,R0                                                    00039000
         IC    R0,&CONSID                                               00040000
         MVC   &WTO.(4),=AL2(&LN,16384)      LENGTH & MCSFLAG=REG0      00040100
         AGO   .WTORWRT                                                 00040200
.WTORRT  AIF   ('&ROUTC' NE '').WTOALL                                  00040300
&ROUTC   SETC  '=X''00008000'''                      ROUTCDE=1          00040400
.WTORALL ICM   R14,15,&WTO+4+&LN               SAVE MSG                 00040500
         MVC   &WTO+4+&LN.(4),&ROUTC                                    00040600
         MVC   &WTO.(4),=AL2(&LN+4,32768)   LENGTH & MCSFLAG            00040700
.WTORWRT MVC   &WTO+4(7),&MSGCODE                                       00040800
         MVI   &WTO+4+7,C' '                                            00040900
         AIF   ('&WTOCON' EQ '').NOPREF2                         NS001  00041000
         MVC   &WTO+4(3),=C'&WTOCON'                                    00041100
.NOPREF2 ANOP                                                           00041200
         WTOR  ,&AREAANS,&ANSLEN,&ECB,MF=(E,&WTOR)                      00041300
         AIF   ('&CONSID' NE '').CHKDOM                                 00041400
         STCM  R14,15,&WTO+4+&LN                                        00041500
.CHKDOM  AIF   ('&DOMA' EQ '').NODOMR2     AREA SPECIFIED ?      W272   00041600
         ST    R1,&DOMA            SAVE REG1                     W272   00041700
.NODOMR2 AGO  .LOOPTYP                                           MM002  00041800
.*--------------------------------------------------------------------* 00041900
.*       ROUT=WTOR2                                                   * 00042000
.*--------------------------------------------------------------------* 00043000
.WTOR2   ANOP                                                           00044000
&ROUTC   SETC  '=X''40008000'''                DESC=2,ROUTCDE=1         00045000
         AGO   .WTORALL                                                 00046000
.*--------------------------------------------------------------------* 00047000
.*       ROUT=LOG                                                     * 00048000
.*--------------------------------------------------------------------* 00049000
.LOG     AIF   ('&TIME' NE '' AND '&DATE' NE '').BLDTIME         LN001  00050000
         AIF   (&H2TIME).BLDTIME                                 LN001  00051000
         LA    R1,&SAVTIME                                       LN001  00051100
         L     R15,=V(CTSTIMER)                                         00051200
         BALR  R14,R15                                                  00051300
&H2TIME  SETB  1                                                 LN001  00051400
.BLDTIME LA    R15,&AREA       LOG AREA                          LN001  00051500
         USING  LOG,R15                                                 00051600
         LA    R14,&MSGS                                                00051700
         MVI   LOGSTART,C' '                                            00051800
         MVC   LOGSTART+1(LOGENTL-1),LOGSTART                           00051900
         MVC   LOGCODE,&MSGCODE                                         00052000
         AIF   ('&TYPE' NE 'I').LOD1                                    00052100
         MVC   LOGPROC,&PROC                                            00052200
         MVC   LOGPROCT,&PROCT                                          00052300
         MVC   LOGMEMBR,&MEMBER                                         00052400
         MVC   LOGILDAT,&IDATE                                          00052500
         MVC   LOGMSGI,L'LOGCODE+0(R14)                                 00052600
         AGO   .LOG1                                                    00052700
.LOD1    ANOP                                                           00052800
         AIF   ('&TYPE' EQ 'J').LOD22                                   00052900
         AIF   ('&TYPE' EQ 'S').LOD22                                   00053000
         AIF   ('&TYPE' EQ 'X').LOD22                                   00053100
         AGO   .LOD2                                                    00053200
.LOD22   ANOP                                                           00053300
         MVC   LOGPROC,&PROC                                            00053400
         MVC   LOGPROCT,&PROCT                                          00053500
         MVC   LOGMEMBR,&MEMBER                                         00053600
         MVC   LOGJOBNM,&JOBNM                                          00053700
         MVC   LOGJOBID,&JOBID                                          00053800
         MVC   LOGMSGJ,L'LOGCODE+0(R14)                                 00053900
         AGO   .LOG1                                                    00054000
.LOD2    ANOP                                                           00054100
         AIF   ('&TYPE' NE 'E').LOD3                                    00054200
         MVC   LOGDGRUP,&PROC                                           00054300
         MVC   LOGDMIST,&PROCT                                          00054400
         MVC   LOGCTGRY,&CTGRY                                          00054500
         MVC   LOGDMIS,&MEMBER                                          00054600
         MVC   LOGDODAT,&IDATE                                          00054700
         MVC   LOGDMSGE,L'LOGCODE+0(R14)        YS 16/3/87              00054800
         AGO   .LOG1                                                    00054900
.LOD3    ANOP                                                           00055000
         AIF   ('&TYPE' EQ 'F').LOD44                                   00055100
         AIF   ('&TYPE' EQ 'M').LOD44                                   00055200
         AIF   ('&TYPE' EQ 'H').LOD44                                   00055300
         AIF   ('&TYPE' EQ 'K').LOD44                                   00055400
         AGO   .LOD4                                                    00055500
.LOD44   ANOP                                                           00055600
         MVC   LOGDGRUP,&PROC                                           00055700
         MVC   LOGDMIST,&PROCT                                          00055800
         MVC   LOGCTGRY,&CTGRY                                          00055900
         MVC   LOGDMIS,&MEMBER                                          00056000
         MVC   LOGDMSGF,L'LOGCODE+0(R14)                                00056100
         MVC   LOGDJBNM,&JOBNM                                          00056200
         MVC   LOGDJBID,&JOBID                                          00056300
         AIF   ('&REPNAME' EQ '').LOG1                                  00056400
         MVC   LOGDRPNM,&REPNAME                                        00056500
         AGO   .LOG1                                                    00056600
.LOD4    ANOP                                                           00056700
         AIF   ('&TYPE' EQ '1').LOD51                    *CTO           00056800
         AIF   ('&TYPE' EQ '2').LOD50                    *CTO           00056900
         AIF   ('&TYPE' EQ '3').LOD50                    *CTO           00057000
         AGO   .LOD5                                     *CTO           00057100
.LOD50   ANOP                                            *CTO           00057200
         MVC   LOGOGRUP,&GROUP                           *CTO           00057300
         MVC   LOGOJBNM,&JOBNM                           *CTO           00057400
         MVC   LOGOJBID,&JOBID                           *CTO           00057500
         MVC   LOGOSMF,&SMFID                            *CTO           00057600
         MVC   LOGOMSG2,L'LOGCODE+0(R14)                 *CTO           00057700
         AGO   .LOG1                                                    00057800
.LOD51   ANOP                                            *CTO           00057900
         MVC   LOGOSMF,&SMFID                            *CTO           00058000
         MVC   LOGOMSG1,L'LOGCODE+0(R14)                 *CTO           00059000
         AGO   .LOG1                                                    00059100
.*                                                                      00059200
.*                                                                      00059300
.*                                                                      00059400
.LOD5    ANOP                                            *CTB           00059500
         AIF   ('&TYPE' EQ '6').LOD60   CTB RTE          *CTB           00059600
         AIF   ('&TYPE' EQ '7').LOD60   CTB SHOUT        *CTB           00059700
         AIF   ('&TYPE' EQ '8').LOD61   CTB DAILY        *CTB           00059800
         AIF   ('&TYPE' EQ '9').LOD6    CTB GENERAL      *CTB           00059900
         AIF   ('&TYPE' EQ '0').LOD60   CTB STAT         *CTB           00060000
         AGO   .LOD6                                     *CTB           00060100
.LOD60   ANOP                                            *CTB           00060200
         MVC   LOGBGRUP,&PROC                            *CTB           00060300
         MVC   LOGBMIST,&PROCT                           *CTB           00060400
         MVC   LOGBCTG,&CTGRY                            *CTB           00060500
         MVC   LOGBMIS,&MEMBER                           *CTB           00060600
         MVC   LOGBJBNM,&JOBNM                           *CTB           00060700
         MVC   LOGBJBID,&JOBID                           *CTB           00060800
         MVC   LOGBMSG6,L'LOGCODE+0(R14)                 *CTB           00060900
         AGO   .LOG1                                     *CTB           00061000
.LOD61   ANOP                                            *CTB           00061100
         MVC   LOGBGRUP,&PROC                            *CTB           00061200
         MVC   LOGBMIST,&PROCT                           *CTB           00061300
         MVC   LOGBCTG,&CTGRY                            *CTB           00061400
         MVC   LOGBMIS,&MEMBER                           *CTB           00061500
         MVC   LOGBODAT,&IDATE                           *CTB           00061600
         MVC   LOGBMSG8,L'LOGCODE+0(R14)                 *CTB           00061700
         AGO   .LOG1                                     *CTB           00061800
.*                                                       *CTB           00061900
.*  IF NOT IN ALL ABOVE TYPES, JUST COPY CODE+MESSAGE    *CTB           00062000
.*                                                       *CTB           00062100
.LOD6    ANOP                                            *CTB           00062200
         MVC   LOGMSG,L'LOGCODE+0(R14)                                  00062300
.LOG1    AIF   ('&TIME' NE '').BLDTIME                                  00062400
         MVC   LOGTIME,=X'000103040607'  MASK TO EXTRACT TIME           00062500
         TR    LOGTIME,&SAVTIME                                         00062600
         AGO   .BLDLT                                                   00062700
         MVC   LOGTIME,&TIME                                            00062800
.BLDLT   AIF   ('&DATE' NE '').TDATE                                    00062900
         MVC   LOGDATE,=X'060703040001'  MASK TO EXTRACT TIME           00063000
         TR    LOGDATE,8+&SAVTIME                                       00064000
         AGO   .CALL2                                                   00064100
.TDATE   MVC   LOGDATE,&DATE                                            00064200
.CALL2   AIF   ('&LDATE' EQ '').CALL3                                   00064300
         MVC   LOGLDATE,&LDATE                                          00064400
         AGO   .TYPE                                                    00064500
.CALL3   MVC   LOGLDATE,LOGDATE                                         00064600
.TYPE    MVI   LOGTYPE,C'&TYPE'                                         00064700
         MVC   LOGUSRID,&USER                                           00064800
         AIF   ('&URGENT' EQ '').CALL                                   00064900
         MVI   LOGURGNT,C'&URGENT'                                      00065000
.CALL    ANOP                                                           00065100
         AIF   ('&URGENC' EQ '').CALLE                                  00065200
         MVC   LOGURGNT,&URGENC                                         00065300
.CALLE   LA    R1,LOGPARM              PARM LIST                 LN001  00065400
         LA    R14,=CL8'ADDQD'         LOG OPERATION             LN001  00065500
         ST    R14,0(R1)               OPERATION                 LN001  00065600
         PUSH  USING                                             *IE    00065700
         AIF   ('&MCTADDR' EQ '').ADRMCT                         *IE    00065800
         USING MCT,R14                                           *IE    00065900
         L     R14,&MCTADDR            GET MCT ADDRESS           *IE    00066000
         AGO   .HAVEMCT                                                 00066100
.ADRMCT  LA    R14,MCTSTART                                             00066200
.HAVEMCT SR    R0,R0                                             LN001  00066300
         STM   R14,R0,4(R1)            MCT & LOG AREA            LN001  00066400
         LA    R15,&HANDLE                                       LN001  00066500
         ST    R15,16(R1)              HANDLE                    LN001  00066600
         OI    16(R1),X'80'            VL INDICATOR              LN001  00066700
         L     R15,&LOGEPA             ENTRY POINT               LN001  00066800
         POP   USING                                             *IE    00066900
         BALR  R14,R15                                           LN001  00067000
         AGO   .LOOPTYP                                                 00067100
.*--------------------------------------------------------------------* 00067200
.*       ROUT=OUT                                                     * 00067300
.*--------------------------------------------------------------------* 00067400