         MACRO                                                          00000100
&NAME    CTSCALL  &PROG,&VAR,&LINK=EXT,&BRANCH=,&RAREA=                 00000200
.*********************************************************************  00000300
.***                                                              ****  00000400
.***       REENTRANT CALL MACRO                                   ****  00000500
.***                                                              ****  00000600
.***       CONTROL-O   RELEASE 1.0.0                              ****  00000700
.***                                                              ****  00000800
.***       LICENCED MATERIAL - 4TH DIMENSION SOFTWARE LTD.        ****  00000900
.***                                                              ****  00001000
.*********************************************************************  00001100
.*                                                                      00001200
.*       PROG=     - LIKE IN CALL                                       00001300
.*       VAR=      - LIKE IN CALL                                       00001400
.*       LINK=     - INT SUBROUTINE (L  15,A(&PROG))                    00001500
.*                 - EXT SUBROUTINE (L  15,V(&PROG)) - DEFAULT          00001600
.*       BRANCH=   - LIST OF BRANCH ENTRIES FOR RC 0,4,8, ETC           00001700
.*                   ANY OMMITED ENTRY BRANCHES TO END OF CALL          00001800
.*       RAREA=    - ADDRESS OF A BUFFER BIG ENOUGH FOR THE DEVELOPMENT 00001900
.*                   OF THE PARAMETER LIST. WHEN THE PARAMETER IS       00002000
.*                   OMITTED, IT DEVELOPS INTO THE REGULAR CALL MACRO   00002100
.*                                                                      00002200
         LCLC  &AREA,&AREA1                                             00002300
         LCLA  &I,&L                                                    00002400
         CNOP  0,4                                                      00002500
         AIF    (T'&NAME EQ 'O').NONAME                                 00002600
&NAME    EQU   *                                                        00002700
.NONAME  ANOP                                                           00002800
         AIF    (T'&RAREA NE 'O').RAREA                                 00002900
         AIF   ('&PROG' EQ '(15)').CHKCALL                              00003000
         AIF   ('&LINK' EQ 'INT').LNKINT                                00003100
         L     15,=V(&PROG)                                             00003200
         AGO   .CHKCALL                                                 00003300
.LNKINT  ANOP                                                           00003400
         L     15,=A(&PROG)                                             00003500
         AGO   .CHKCALL                                                 00003600
.CHKCALL ANOP                                                           00003700
         CALL  (15),&VAR                                                00003800
         AGO   .BRANCH                                                  00003900
.RAREA   ANOP                                                           00004000
         AIF    (T'&VAR NE 'O').VAR                                     00004100
         SR    1,1                                                      00004200
         AGO   .CALL                                                    00004300
.VAR     ANOP                                                           00004400
&AREA    SETC  '&RAREA'                                                 00004500
&I       SETA  1                                                        00004600
&L       SETA  0                                                        00004700
.VARLOOP ANOP                                                           00004800
&AREA1   SETC  '&AREA+&L'                                               00004900
         AIF   (T'&VAR(&I) NE 'O').CHKVAR1                              00005000
         LA    R0,0                                                     00005100
         ST    R0,&AREA1                                                00005200
         AGO   .NEXT                                                    00005300
.CHKVAR1 ANOP                                                           00005400
         AIF   ('&VAR(&I)'(1,1) EQ '(').VARREG                          00005500
         LA    0,&VAR(&I)                                               00005600
         ST    0,&AREA1                                                 00005700
         AGO   .NEXT                                                    00005800
.VARREG  ANOP                                                           00005900
         ST    &VAR(&I),&AREA1                                          00006000
         AGO   .NEXT                                                    00006100
.NEXT    ANOP                                                           00006200
&I       SETA  &I+1                                                     00006300
&L       SETA  &L+4                                                     00006400
         AIF   (&I LE N'&VAR).VARLOOP                                   00006500
         OI    &AREA1,X'80'                                             00006600
         LA    R1,&AREA                                                 00006700
.CALL    ANOP                                                           00006800
         AIF   ('&PROG' EQ '(15)').CALCALL                              00006900
         AIF   ('&LINK' EQ 'INT').CALINK                                00007000
         L     15,=V(&PROG)                                             00007100
         AGO   .CALCALL                                                 00007200
.CALINK  ANOP                                                           00007300
         L     15,=A(&PROG)                                             00007400
.CALCALL ANOP                                                           00007500
         BALR  R14,R15                                                  00007600
.BRANCH  ANOP                                                           00007700
         AIF   ('&BRANCH' NE '').BRANCH1                                00007800
         MEXIT                                                          00007900
.BRANCH1 ANOP                                                           00008000
         SRL   R15,2               ENSURE IT'S A MULTIPLE OF 4          00008100
         SLL   R15,2                                                    00008200
&L       SETA  N'&BRANCH                                                00008300
         C     R15,=A(4*&L) OVER LAST BRANCH LABEL?                     00008400
         BH    &BRANCH(N'&BRANCH)  ..YES BRANCH TO LAST                 00008500
         B     *+4(R15)            USE BRANCH TABLE                     00008600
&I       SETA  1                                                        00008700
.BLOOP   ANOP                                                           00008800
&AREA    SETC  'CALL&SYSNDX'                                            00008900
         AIF   (T'&BRANCH(&I) EQ 'O').SETBR                             00009000
&AREA    SETC  '&BRANCH(&I)'                                            00009100
.SETBR   ANOP                                                           00009200
         B     &AREA                                                    00009300
&I       SETA  &I+1                                                     00009400
         AIF   (&I LE N'&BRANCH).BLOOP                                  00009500
CALL&SYSNDX EQU *                                                       00009600
         MEND                                                           00009700
