         MACRO                                                          00010000
.*********************************************************************  00020000
.***                                                              ****  00030000
.***       CONTROL-SA SENDING MESSAGES MACRO - REENTRANT          ****  00040000
.***                                                              ****  00050000
.***       CONTROL SA  RELEASE 1.2.1                              ****  00060000
.***                                                              ****  00070000
.***       LICENCED MATERIAL - NEW DIMENSION SOFTWARE LTD.        ****  00080000
.***                                                              ****  00090000
.*********************************************************************  00100000
&NAME    CTSMSG1    &TYPE=' ',      ID OF SENDER                       *00110000
               &USER==CL8'GENERAL',   TYPE OF USER                     *00120000
               &CODE=,                EXTERNAL SYMBOL IDENTFY MSG      *00130000
               &URGENT=R,             AMOUNT OF URGENT                 *00140000
               &TIME=,                HOW TO GET   TIME                *00150000
               &URGENC=,              AMOUNT OF URGENT                 *00160000
               &DATE=,                HOW TO GET   DATE                *00170000
               &LDATE=,               LOGICAL  DATE                    *00180000
               &ROUT=,               WTO/WTOR/LOG                      *00190000
               &ECB=0,                IF WTOR                          *00200000
               &ROUTCDE=,            WTO/WTOR USE                      *00210000
               &REG=,                 REGISTER  POINTS  WORK AREA      *00220000
               &MCTADDR=0,            MCT  ADDR           *IE          *00230000
               &PLANT=,               PLANT  STRINGS IN MESSAGES       *00240000
               &CODEMSG=,             IF  INTERNAL  MESSEGES           *00250000
               &MSG=,                 BUILTIN MSG                      *00260000
               &AREAANS=,             ANSWER FROM OPERATOR             *00270000
               &DCB=DCBOUT,           DCB ADDRESS                      *00280000
               &PROC=AMFGROUP,        PROC OF JOB (TYPE=I)             *00290000
               &PROCT=,               PROCT OF JOB (TYPE=I)            *00300000
               &IDATE=,               LDATE OF JOB (TYPE=I)            *00310000
               &MEMBER=AMFMISNM,      MEMBER NAME OF JOB (TYPE=I)      *00320000
               &ASA=C' ',             ASA  CODE                        *00330000
               &DOMA=,                AREA TO STORE WTOR-ID       W272 *00340000
               &JOBNM=AMFGENJN,       JOBNAME      (TYPE=J)            *00350000
               &CTGRY=AMFCTGRY,       CATEGORY     (TYPE=E,F....  CTD  *00360000
               &REPNAME=,             REPORT NAME  (TYPE=F         CTD *00370000
               &WTOCON=CTS,           WTO CONSTANT                CTD  *00380000
               &JOBID=AMFJOBID,       JOBID        (TYPE=J)            *00390000
               &RAREA=RAREA,          LABEL FOR LIST FORM WTO,WTOR @T  *00400000
               &LOGEPA=MCTCHN,        LOG ROUTINE ADDRESS         LN001*00410000
               &HANDLE=MCTWLG,        HANDLE ADDRESS              LN001*00420000
               &MONITOR=NO,           NOT TO CHANGE AMOD               *00430000
               &AREA=LOGAREA,         LOG WORK AREA CL(LOGENTL)   LN001*00440000
               &POST=N,               PERFORM THE POST (Y/N)           *00450000
               &CONSID=,              CONSOLE ID FOR WTO               *00460000
               &LONG=                 ALLOW MESSAGE OF 126 CHARS  PN001 00470000
&NAME    CTSMSG2    TYPE=&TYPE,      ID OF SENDER                      *00480000
               USER=&USER,           TYPE OF USER                      *00490000
               CODE=&CODE,           EXTERNAL SYMBOL IDENTFY MSG       *00500000
               URGENT=&URGENT,       AMOUNT OF URGENT                  *00510000
               TIME=&TIME,           HOW TO GET   TIME                 *00520000
               URGENC=&URGENC,       AMOUNT OF URGENT                  *00530000
               DATE=&DATE,           HOW TO GET   DATE                 *00540000
               LDATE=&LDATE,         LOGICAL  DATE                     *00550000
               ROUT=&ROUT,           WTO/WTOR/LOG                      *00560000
               ECB=&ECB,             IF WTOR                           *00570000
               ROUTCDE=&ROUTCDE,     WTO/WTOR USE                      *00580000
               REG=&REG,             REGISTER  POINTS  WORK AREA       *00590000
               MCTADDR=&MCTADDR,     MCT  ADDR                         *00600000
               PLANT=&PLANT,         PLANT  STRINGS IN MESSAGES        *00610000
               CODEMSG=&CODEMSG,     IF  INTERNAL  MESSAGE             *00620000
               MSG=&MSG,             IF  INTERNAL  BUILTIN MESSAGE     *00630000
               AREAANS=&AREAANS,     ANSWER FROM OPERATOR              *00640000
               DCB=&DCB,             INSTEAD OF DCBOUT                 *00650000
               PROC=&PROC,           PROC OF JOB (TYPE=I)              *00660000
               PROCT=&PROCT,         PROCT OF JOB (TYPE=I)             *00670000
               IDATE=&IDATE,         LDATE OF JOB (TYPE=I)             *00680000
               MEMBER=&MEMBER,       MEMBER NAME OF JOB (TYPE=I)       *00690000
               ASA=&ASA,             ASA  CODE                         *00700000
               DOMA=&DOMA,            AREA TO STORE WTO-ID (CM W272)   *00710000
               CTGRY=&CTGRY,         CATEGORY     (TYPE=E,F..          *00720000
               REPNAME=&REPNAME,     REPORT NAME  (TYPE=F...           *00730000
               JOBNM=&JOBNM,         JOBNAME      (TYPE=J)             *00740000
               WTOCON=&WTOCON,       CONTROL D WTO CONSTANT            *00750000
               JOBID=&JOBID,         JOBID        (TYPE=J)             *00760000
               RAREA=&RAREA,         LABEL FOR LIST FORM WTO,WTOR @T   *00770000
               LOGEPA=&LOGEPA,       LOG ROUTINE ADDRESS          LN001*00780000
               HANDLE=&HANDLE,       HANDLE ADDRESS               LN001*00790000
               MONITOR=&MONITOR,     AMOD PROCESSING              LN001*00800000
               AREA=&AREA,           WORK AREA FOR LOG            LN001*00810000
               CONSID=&CONSID,       CONSOLE ID FOR WTO           LN001*00820000
               LONG=&LONG             ALLOW MESSAGE OF 126 CHARS  PN001 00830000
         AIF   ('&POST'(1,1) NE 'Y').NOPOST                             00840000
         CLI        DCTPMECB,X'40'                                      00850000
         BE         A&SYSNDX                                            00860000
         TS         DCTPSTSN                                            00870000
         BC         4,A&SYSNDX                                          00880000
         POST       DCTPMECB                                            00890000
         MVI        DCTPSTSN,X'00'                                      00900000
A&SYSNDX EQU   *                                                        00910000
.NOPOST  ANOP                                                           00920000
         MEND                                                           00930000
