         MACRO                                                          00010000
&NAME    H2DALTXT &VERB=,&PREFIX=,&FIELDS=(PTR,UNT),&MF=L,             +00020000
               &HELP=NO,                                               +00030000
               &BFALN=,&BFTEK=,&BLKLN=,&BLKSZ=,&BUFIN=,&BUFL=,&BUFMX=, +00040000
               &BUFNO=,&BUFOF=,&BUFOU=,&BUFRQ=,&BUFSZ=,                +00050000
               &CDISP=,&CLOSE=,&CNVRT=,&CODE=,&COPYS=,&CPRI=,&CURNT=,  +00060000
               &CYL=,                                                  +00070000
               &DEFER=,                                                +00080000
               &DCBDD=,&DCBDS=,&DDNAM=,&DEN=,&DIAGN=,&DIR=,&DSNAM=,    +00090000
               &DSORG=,&DSSEQ=,&DUMMY=,                                +00100000
               &EROPT=,&EXPDT=,&FCBAV=,&FCBIM=,&FRID=,&FUNC=,          +00110000
               &GNCP=,&INOUT=,&INTVL=,&IPLTX=,&KYLEN=,                 +00120000
               &LABEL=,&LIMCT=,&LRECL=,&MEMBR=,&MODE=,&MSVGP=,         +00130000
               &NCP=,&NDISP=,                                          +00140000
               &OPTCD=,&OUTLM=,&OVCLS=,&OVDSP=,&OVSHQ=,&OVSNH=,&OVSUS=,+00150000
               &PARAL=,&PASPR=,&PASSW=,&PCIR=,&PCIS=,&PERMA=,&PERMC=,  +00160000
               &PRIME=,&PRIVT=,&PRTSP=,&QNAME=,                        +00170000
               &RECFM=,&RELNO=,&REMOV=,&RETPD=,&RLSE=,&ROUND=,&RSRVF=, +00180000
               &RSRVS=,&RTATT=,&RTCDP=,&RTDDN=,&RTDSN=,&RTDUM=,&RTLIM=,+00190000
               &RTLST=,&RTMEM=,&RTNDP=,&RTORG=,&RTSTA=,&RTTYP=,&RTVOL=,+00200000
               &SECND=,&SFMNO=,&SHOLD=,&SOWA=,&SPFRM=,&SPGNM=,&SSREQ=, +00210000
               &STACK=,&STATS=,&SUSER=,&SYSOU=,                        +00220000
               &TCBAD=,&TERM=,&THRSH=,&TRK=,&TRTCH=,                   +00230000
               &UCS=,&UFOLD=,&UNALC=,&UNCNT=,&UNIT=,&UVRFY=,           +00240000
               &VLCNT=,&VLRDS=,&VLSEQ=,&VLSER=                          00250000
.*--------------------------------------------------------------------* 00260000
.*       S E T    S Y M B O L S    D E F I N I T I O N S              * 00270000
.*--------------------------------------------------------------------* 00280000
         GBLA  &H2DLINX                      INDEX IN UNTNAMES VECTOR   00290000
         GBLC  &H2DLUNT(100)                 UNTNAMES VECTOR            00300000
         GBLC  &H2DLPRF                      HOLDS PREFIX FOR IN-MACRO  00310000
         GBLB  &H2DLBMF                      MF=E                       00320000
         GBLB  &H2DLBPT                      FIELDS=PTR                 00330000
         GBLB  &H2DLBUN                      FIGLDS=UNT/KEY/LEN/PRM     00340000
         GBLB  &H2DLBKY                      FIELDS=KEY                 00350000
         GBLB  &H2DLB#                       FIELDS=UNT                 00360000
         GBLB  &H2DLBLN                      FIELDS=LEN                 00370000
         GBLB  &H2DLBPR                      FIELDS=LEN/PRM             00380000
         GBLB  &H2DALNL            RETURNS FROM H2DALNUL                00390000
         LCLA  &N,&I                                                    00400000
         LCLB  &BPT,&BUN,&BKY,&B#,&BLN,&BPR  INDICATIONS                00410000
.*-------------                                                         00420000
.*       INIT  GLOBAL SET SYMBOLS                                       00430000
.*-------------                                                         00440000
&H2DLINX SETA  0                                                        00450000
&H2DLPRF SETC  ''                                                       00460000
&H2DLBMF SETB  0                                                        00470000
.*--------------------------------------------------------------------* 00480000
.*       " H E L P "    D O C U M A N T A T I O N                     * 00490000
.*--------------------------------------------------------------------* 00500000
.*                                                                      00510000
         AIF   ('&HELP' EQ 'NO').OVHELP                                 00520000
*---------------------------------------------------------------------* 00530000
*        D Y N A M I C    A L L O C A T I O N    M A C R O            * 00540000
*        H 2 D A L T X T                                              * 00550000
*        THIS MACRO DEFINES/MODIFIES:                                 * 00560000
*        1. TEXT UNIT POINTERS LIST;                                  * 00570000
*        2. TEXT UNITS;                                               * 00580000
*        MACROS USED IN THIS MACRO DEFINITION:                        * 00590000
*        1. H2DALUNT - TO DEFINE/MODIFY A TEXT UNIT;                  * 00600000
*        2. H2DALSCN - TO TRANSLATE A MNEUMONIC INTO A BIT COMBINATION* 00610000
*                     (USED ONLY BY H2DALUNT)                         * 00620000
*        3. H2DALNUL - TO SCAN PARAMETER LIST FOR ALL NULL.             00630000
*        MACRO PARAMETERS ARE DEVIDED INTO TWO GROUPS:                * 00640000
*        1. CONTROL PARAMETERS, WHICH AFFECT  FLOW OF MACRO DEFINITION* 00650000
*        2. ALLOCATION PARAMETERS, WHICH DETERMINE WHICH TEXT UNITS   * 00660000
*           AND WHICH TEXT UNIT POINTERS WILL BE AFFECTED.            * 00670000
*        CONTROL PARAMETERS ARE:                                      * 00680000
*        &HELP=   - DETERMINES WHETHER THESE COMMENTS ARE TO BE PRINTD* 00690000
*                   NO  - COMMENTS ARE NOT PRINTED;                   * 00700000
*                   YES - COMMENTS ARE PRINTED TO HELP PROGRAMMER;    * 00710000
*                   DEFAULT IS &HELP=NO.                              * 00720000
*        &PREFIX= - SUPPLIES A PREFIX FOR SYMBOLIC NAMES (LABELS)     * 00730000
*                   AFFECTED BY H2DALTXT. MAY BE 1 TO 3 ALPHA-MERIC   * 00740000
*                   + NATIONALS, THE 1ST OF WHICH MAY NOT BE NUMERIC. * 00750000
*                   DEFAULT IS &PREFIX=''.                            * 00760000
*        &VERB=   - DETERMINES DYNAMIC ALLOCATION VERB. FOR EACH VERB * 00770000
*                   THERE IS A SET OF ALLOCATION PARAMETERS.          * 00780000
*                   FOLLWING ARE THE VARIOUS VERBS POSSIBLE:          * 00790000
*                   AL - DYNAMIC ALLOCATION BY DSNAME;                * 00800000
*                   UN - DYNAMIC UNALLOCATION;                        * 00810000
*                   CC - DYNAMIC CONCATENATION;                       * 00820000
*                   DC - DYNAMIC DECONCATENATION;                     * 00830000
*                   RI - REMOVE IN-USE ATTRIBUTE;                     * 00840000
*                   DN - DDNAME ALLOCATION;                           * 00850000
*                   IN - INFORMATION RETRIEVAL;                       * 00860000
*                   THIS PARAMETER IS OBLIGATORY. THERE IS NO DEFAULT-* 00870000
*                   OPTION FOR &VERB.                                 * 00880000
*        &FIELDS= - DETERMINES FIELDS AFFECTED BY THIS MACRO:         * 00890000
*                   PTR - TEXT UNIT POINTERS LIST IS AFFECTED;        * 00900000
*                   UNT - ALL FIELDS IN TEXT UNITS ARE AFFECTED;      * 00910000
*                   KEY - ONLY THE KEY FIELD IS AFFECTED;             * 00920000
*                   LEN - LEN & PARM FIELDS ARE AFFECTED;             * 00930000
*                   PRM - ONLY PARM FIELD IS AFFECTED;                * 00940000
*                   DEFAULT IS FIELDS=(PTR,UNT)                       * 00950000
*        &MF=     - MACRO FORM.                                       * 00960000
*                   L - THE STANDARD MACRO FORM, TO DEFINE TABLES     * 00970000
*                   E - EXECUTE FORM, TO CREATE OR MODIFY TABLES      * 00980000
*                   DEFAULT IS MF=L.                                  * 00990000
*        ALLOCATION PARAMETERS ARE OF THE FORMAT                      * 01000000
*        <KEYWORD>=<VALUE>                                            * 01010000
*        <KEYWORD> STANDS FOR AN ALLOCATION PARAMETER NAME.           * 01020000
*        <VALUE>   STANDS FOR PARAMETER'S VALUE.                      * 01030000
*        CODING RULES FOR <VALUE>:                                    * 01040000
*                   *    TEXT UNIT WITH A NULL PARM FIELD;            * 01050000
*                  (*,N) "N" NULL PARM FIELDS;                        * 01060000
*                   "    TEXT UNIT WITH NULL KEY & PARM FIELDS;       * 01070000
*                  (",N) A NULL KEY FIELD AND "N" NULL PARM FIELDS;   * 01080000
*                   YES/Y FOR TEXT UNIT WITH NO LEN/PARM FIELD;       * 01090000
*                   CHARACTER-STRING FOR CHARACTERIAL TEXT UNIT;      * 01100000
*                   NUMBER FOR NUMERAL TEXT UNIT;                     * 01110000
*                   MNEUMONIC (SHR,KEEP,FB) FOR BIT COMBINATION;      * 01120000
*        NOTE: FOR TEXT UNIT OF INFORMATION RETIEVAL (RTVOL,RTDDN),   * 01130000
*              CODE *.                                                * 01140000
*              FOR MORE THAN ONE PARAMETER, CODE ALL VALUES WITHIN    * 01150000
*              PARENTHESIS, SEPERATED BY COMMAS                       * 01160000
*---------------------------------------------------------------------* 01170000
.OVHELP  ANOP                                                           01180000
.*--------------------------------------------------------------------- 01190000
.*       A N A L Y Z E    P A R A M E T E R S                         * 01200000
.*--------------------------------------------------------------------- 01210000
.*                                                                      01220000
.*-------------                                                         01230000
.*       NAME  FIELD                                                    01240000
.*-------------                                                         01250000
         AIF   ('&NAME' EQ '').ONAMFLD                                  01260000
         CNOP  0,4                                                      01270000
&NAME    EQU   *                                                        01280000
.ONAMFLD ANOP                                                           01290000
.*-------------                                                         01300000
.*       PREFIX  PARAMETER                                              01310000
.*-------------                                                         01320000
&H2DLPRF SETC  '&PREFIX'                     SAVE FOR INSIDE MACRO USE  01330000
.*                                                                      01340000
.******  MF  PARAMETER                                                  01350000
.*                                                                      01360000
         AIF   ('&MF' EQ 'L').OANLMF         H2DLBMF=0 FOR MF=L         01370000
         AIF   ('&MF' NE 'E').ERMFINV        ERROR-MF IS INVALID        01380000
&H2DLBMF SETB  1                             H2DLBMF=1 FOR MF=E         01390000
.OANLMF  ANOP                                                           01400000
.*-------------                                                         01410000
.*       FIELDS  PARAMETER                                              01420000
.*-------------                                                         01430000
         AIF   ('&FIELDS' EQ '').ERFLDIN     ERROR- FIELDS NULLIFIED    01440000
&N       SETA  N'&FIELDS                                                01450000
&I       SETA  0                                                        01460000
.FLDLOOP ANOP                                LOOP ON FIELDS SUBPARM'S   01470000
&I       SETA  &I+1                                                     01480000
         AIF   (&I GT &N).FLDCHK                                        01490000
         AIF   ('&FIELDS(&I)' EQ 'PTR').FLDPTR                          01500000
         AIF   ('&FIELDS(&I)' EQ 'UNT').FLDUNT                          01510000
         AIF   ('&FIELDS(&I)' EQ 'KEY').FLDKEY                          01520000
         AIF   ('&FIELDS(&I)' EQ 'LEN').FLDLEN                          01530000
         AIF   ('&FIELDS(&I)' EQ 'PRM').FLDPRM                          01540000
         AGO   .ERFLDIN                      ERROR- FIELDS IS INVALID   01550000
.FLDPTR  ANOP                                FIELDS=PTR                 01560000
&BPT     SETB  1                                                        01570000
         AGO   .FLDLOOP                                                 01580000
.FLDUNT  ANOP                                FIELDS=UNT                 01590000
&BUN     SETB  1                                                        01600000
&BKY     SETB  1                                                        01610000
&B#      SETB  1                                                        01620000
&BLN     SETB  1                                                        01630000
&BPR     SETB  1                                                        01640000
         AGO   .FLDLOOP                                                 01650000
.FLDKEY  ANOP                                FIELDS=KEY                 01660000
         AIF   (NOT &H2DLBMF).ERFLDMF        ERROR- FIELDS ILLEGAL MF=L 01670000
&BUN     SETB  1                                                        01680000
&BKY     SETB  1                                                        01690000
         AGO   .FLDLOOP                                                 01700000
.FLDLEN  ANOP                                FIELDS=LEN                 01710000
         AIF   (NOT &H2DLBMF).ERFLDMF        ERROR- FIELDS ILLEGAL MF=L 01720000
&BUN     SETB  1                                                        01730000
&BLN     SETB  1                                                        01740000
&BPR     SETB  1                                                        01750000
         AGO   .FLDLOOP                                                 01760000
.FLDPRM  ANOP                                FIELDS=PRM                 01770000
         AIF   (NOT &H2DLBMF).ERFLDMF        ERROR- FIELDS ILLEGAL MF=L 01780000
&BUN     SETB  1                                                        01790000
&BPR     SETB  1                                                        01800000
         AGO   .FLDLOOP                                                 01810000
.FLDCHK  ANOP                                                           01820000
.*-------------                                                         01830000
.*       THE FOLLOWING CODE FNABLES MACRO FIRST TO GENERATE TEXT-UNIT-  01840000
.*       POINTERS-LIST AND THEN THE REQUESTED TEXT UNITS.               01850000
.*       CONSEQENCIALY, MF=E IS ALSO AFFECTED, SO LIST IS HANDLED       01860000
.*       PRIMERLY.                                                      01870000
.*-------------                                                         01880000
&H2DLBUN SETB  0                                                        01890000
&H2DLBKY SETB  0                                                        01900000
&H2DLB#  SETB  0                                                        01910000
&H2DLBLN SETB  0                                                        01920000
&H2DLBPR SETB  0                                                        01930000
&H2DLBPT SETB  (&BPT)                                                   01940000
         AIF   (&H2DLBPT).OANLFLD            GO TO HANDLE TUPL.         01950000
.TXTUNT  ANOP                                COME BACK HERE FOR TEXTUNT 01960000
&H2DLBPT SETB  0                                                        01970000
&H2DLBUN SETB  (&BUN)                                                   01980000
&H2DLBKY SETB  (&BKY)                                                   01990000
&H2DLB#  SETB  (&B#)                                                    02000000
&H2DLBLN SETB  (&BLN)                                                   02010000
&H2DLBPR SETB  (&BPR)                                                   02020000
         AIF   (NOT &H2DLBUN).MEND                                      02030000
.OANLFLD ANOP                                END OF FIELDS  ANALYZING   02040000
.*-------------                                                         02050000
.*       DIVERT  ACCORDING  TO  VERB                                    02060000
.*-------------                                                         02070000
         AIF   ('&VERB' EQ 'AL').VERBAL                                 02080000
         AIF   ('&VERB' EQ 'UN').VERBUN                                 02090000
         AIF   ('&VERB' EQ 'CC').VERBCC                                 02100000
         AIF   ('&VERB' EQ 'DC').VERBDC                                 02110000
         AIF   ('&VERB' EQ 'RI').VERBRI                                 02120000
         AIF   ('&VERB' EQ 'DN').VERBDN                                 02130000
         AIF   ('&VERB' EQ 'IN').VERBIN                                 02140000
         AGO   .ERVRBIN                      ERROR- VERB IS INVALID     02150000
.*--------------------------------------------------------------------- 02160000
.*       T E X T    U N I T S                                         * 02170000
.*--------------------------------------------------------------------- 02180000
.*                                                                      02190000
.*-------------                                                         02200000
.*       DATASET  NAME  ALLOCATION                                      02210000
.*-------------                                                         02220000
.VERBAL  ANOP                                                           02230000
      H2DALUNT DDNAM,                                                  +02240000
               KEY=0001,#=1,LEN=8,PARM=&DDNAM,TYPE=C                    02250000
      H2DALUNT DSNAM,                                                  +02260000
               KEY=0002,#=1,LEN=44,PARM=&DSNAM,TYPE=C                   02270000
      H2DALUNT MEMBR,                                                  +02280000
               KEY=0003,#=1,LEN=8,PARM=&MEMBR,TYPE=C                    02290000
      H2DALUNT STATS,                                                  +02300000
               (OLD,01),(MOD,02),(NEW,04),(SHR,08),                    +02310000
               KEY=0004,#=1,LEN=1,PARM=&STATS,TYPE=X                    02320000
      H2DALUNT NDISP,                                                  +02330000
               (UNCATLG,01),(CATLG,02),(DELETE,04),(KEEP,08),          +02340000
               KEY=0005,#=1,LEN=1,PARM=&NDISP,TYPE=X                    02350000
      H2DALUNT CDISP,                                                  +02360000
               (UNCATLG,01),(CATLG,02),(DELETE,04),(KEEP,08),          +02370000
               KEY=0006,#=1,LEN=1,PARM=&CDISP,TYPE=X                    02380000
      H2DALUNT TRK,                                                    +02390000
               KEY=0007,#=0,PARM=&TRK                                   02400000
      H2DALUNT CYL,                                                    +02410000
               KEY=0008,#=0,PARM=&CYL                                   02420000
      H2DALUNT BLKLN,                                                  +02430000
               KEY=0009,#=1,LEN=3,PARM=&BLKLN,TYPE=A                    02440000
      H2DALUNT PRIME,                                                  +02450000
               KEY=000A,#=1,LEN=3,PARM=&PRIME,TYPE=A                    02460000
      H2DALUNT SECND,                                                  +02470000
               KEY=000B,#=1,LEN=3,PARM=&SECND,TYPE=A                    02480000
      H2DALUNT DIR,                                                    +02490000
               KEY=000C,#=1,LEN=3,PARM=&DIR,TYPE=A                      02500000
      H2DALUNT RLSE,                                                   +02510000
               KEY=000D,#=0,PARM=&RLSE                                  02520000
      H2DALUNT SPFRM,                                                  +02530000
               (ALX,02),(MXIG,04),(CONTIG,08),                         +02540000
               KEY=000E,#=1,LEN=1,PARM=&SPFRM,TYPE=X                    02550000
      H2DALUNT ROUND,                                                  +02560000
               KEY=000F,#=0,PARM=&ROUND                                 02570000
      H2DALUNT VLSER,                                                  +02580000
               KEY=0010,#=(1,1,256),LEN=6,PARM=&VLSER,TYPE=C            02590000
      H2DALUNT PRIVT,                                                  +02600000
               KEY=0011,#=0,PARM=&PRIVT                                 02610000
      H2DALUNT VLSEQ,                                                  +02620000
               KEY=0012,#=1,LEN=2,PARM=&VLSEQ,TYPE=A                    02630000
      H2DALUNT VLCNT,                                                  +02640000
               KEY=0013,#=1,LEN=1,PARM=&VLCNT,TYPE=A                    02650000
      H2DALUNT VLRDS,                                                  +02660000
               KEY=0014,#=1,LEN=44,PARM=&VLRDS,TYPE=C                   02670000
      H2DALUNT UNIT,                                                   +02680000
               KEY=0015,#=1,LEN=8,PARM=&UNIT,TYPE=C                     02690000
      H2DALUNT UNCNT,                                                  +02700000
               KEY=0016,#=1,LEN=1,PARM=&UNCNT,TYPE=A                    02710000
      H2DALUNT PARAL,                                                  +02720000
               KEY=0017,#=0,PARM=&PARAL                                 02730000
      H2DALUNT SYSOU,                                                  +02740000
               KEY=0018,#=(1,0,1),LEN=1,PARM=&SYSOU,TYPE=C              02750000
      H2DALUNT SPGNM,                                                  +02760000
               KEY=0019,#=1,LEN=8,PARM=&SPGNM,TYPE=C                    02770000
      H2DALUNT SFMNO,                                                  +02780000
               KEY=001A,#=1,LEN=4,PARM=&SFMNO,TYPE=C                    02790000
      H2DALUNT OUTLM,                                                  +02800000
               KEY=001B,#=1,LEN=3,PARM=&OUTLM,TYPE=A                    02810000
      H2DALUNT CLOSE,                                                  +02820000
               KEY=001C,#=0,PARM=&CLOSE                                 02830000
      H2DALUNT COPYS,                                                  +02840000
               KEY=001D,#=1,LEN=1,PARM=&COPYS,TYPE=A                    02850000
      H2DALUNT LABEL,                                                  +02860000
               (NL,01),(SL,02),(NSL,04),(SUL,08),                      +02870000
               (BLP,10),(LTM,21),(AL,40),(AUL,48),                     +02880000
               KEY=001E,#=1,LEN=1,PARM=&LABEL,TYPE=X                    02890000
      H2DALUNT DSSEQ,                                                  +02900000
               KEY=001F,#=1,LEN=2,PARM=&DSSEQ,TYPE=A                    02910000
      H2DALUNT PASPR,                                                  +02920000
               (PASSWORD,10),(NOPWREAD,30),                            +02930000
               KEY=0020,#=1,LEN=1,PARM=&PASPR,TYPE=X                    02940000
      H2DALUNT INOUT,                                                  +02950000
               (OUT,40),(IN,80),                                       +02960000
               KEY=0021,#=1,LEN=1,PARM=&INOUT,TYPE=X                    02970000
      H2DALUNT EXPDT,                                                  +02980000
               KEY=0022,#=1,LEN=5,PARM=&EXPDT,TYPE=C                    02990000
      H2DALUNT RETPD,                                                  +03000000
               KEY=0023,#=1,LEN=2,PARM=&RETPD,TYPE=A                    03010000
      H2DALUNT DUMMY,                                                  +03020000
               KEY=0024,#=0,PARM=&DUMMY                                 03030000
      H2DALUNT FCBIM,                                                  +03040000
               KEY=0025,#=1,LEN=4,PARM=&FCBIM,TYPE=C                    03050000
      H2DALUNT FCBAV,                                                  +03060000
               (VERIFY,04),(ALIGN,08),                                 +03070000
               KEY=0026,#=1,LEN=1,PARM=&FCBAV,TYPE=X                    03080000
      H2DALUNT QNAME,                                                  +03090000
               KEY=0027,#=1,LEN=8,PARM=&QNAME,TYPE=C                    03100000
      H2DALUNT TERM,                                                   +03110000
               KEY=0028,#=0,PARM=&TERM                                  03120000
      H2DALUNT UCS,                                                    +03130000
               KEY=0029,#=1,LEN=4,PARM=&UCS,TYPE=C                      03140000
      H2DALUNT UFOLD,                                                  +03150000
               KEY=002A,#=0,PARM=&UFOLD                                 03160000
      H2DALUNT UVRFY,                                                  +03170000
               KEY=002B,#=0,PARM=&UVRFY                                 03180000
      H2DALUNT DCBDS,                                                  +03190000
               KEY=002C,#=1,LEN=44,PARM=&DCBDS,TYPE=C                   03200000
      H2DALUNT DCBDD,                                                  +03210000
               KEY=002D,#=1,LEN=8,PARM=&DCBDD,TYPE=C                    03220000
      H2DALUNT BFALN,                                                  +03230000
               (F,01),(D,02),                                          +03240000
               KEY=002E,#=1,LEN=1,PARM=&BFALN,TYPE=X                    03250000
      H2DALUNT BFTEK,                                                  +03260000
               (D,08),(E,10),(R,20),(S,40),(A,60),                     +03270000
               KEY=002F,#=1,LEN=1,PARM=&BFTEK,TYPE=X                    03280000
      H2DALUNT BLKSZ,                                                  +03290000
               KEY=0030,#=1,LEN=2,PARM=&BLKSZ,TYPE=A                    03300000
      H2DALUNT BUFIN,                                                  +03310000
               KEY=0031,#=1,LEN=1,PARM=&BUFIN,TYPE=A                    03320000
      H2DALUNT BUFL,                                                   +03330000
               KEY=0032,#=1,LEN=2,PARM=&BUFL,TYPE=A                     03340000
      H2DALUNT BUFMX,                                                  +03350000
               KEY=0033,#=1,LEN=1,PARM=&BUFMX,TYPE=A                    03360000
      H2DALUNT BUFNO,                                                  +03370000
               KEY=0034,#=1,LEN=1,PARM=&BUFNO,TYPE=A                    03380000
      H2DALUNT BUFOF,                                                  +03390000
               KEY=0035,#=1,LEN=1,PARM=&BUFOF,TYPE=A                    03400000
      H2DALUNT BUFOU,                                                  +03410000
               KEY=0036,#=1,LEN=1,PARM=&BUFOU,TYPE=A                    03420000
      H2DALUNT BUFRQ,                                                  +03430000
               KEY=0037,#=1,LEN=1,PARM=&BUFRQ,TYPE=A                    03440000
      H2DALUNT BUFSZ,                                                  +03450000
               KEY=0038,#=1,LEN=1,PARM=&BUFSZ,TYPE=A                    03460000
      H2DALUNT CODE,                                                   +03470000
               (T,02),(A,04),(C,08),(B,10),(F,20),(I,40),(N,80),       +03480000
               KEY=0039,#=1,LEN=1,PARM=&CODE,TYPE=X                     03490000
      H2DALUNT CPRI,                                                   +03500000
               (S,01),(E,02),(R,04),                                   +03510000
               KEY=003A,#=1,LEN=1,PARM=&CPRI,TYPE=X                     03520000
      H2DALUNT DEN,                                                    +03530000
               (0,03),(1,43),(2,83),(3,C3),(4,D3),                     +03540000
               KEY=003B,#=1,LEN=1,PARM=&DEN,TYPE=X                      03550000
      H2DALUNT DSORG,                                                  +03560000
               (TC,0004),(VS,0008),(TQ,0020),(TX,0040),(GS,0080),      +03570000
               (PO,0200),(POU,0300),(MQ,0400),(CQ,0800),(CX,1000),     +03580000
               (DA,2000),(DAU,2100),(PS,4000),(PSU,4100),(IS,8000),    +03590000
               KEY=003C,#=1,LEN=2,PARM=&DSORG,TYPE=X                    03600000
      H2DALUNT ERORT,                                                  +03610000
               (T,10),(ABE,20),(SKP,40),(ACC,80),                      +03620000
               KEY=003D,#=1,LEN=1,PARM=&EROPT,TYPE=X                    03630000
      H2DALUNT GNCP,                                                   +03640000
               KEY=003E,#=1,LEN=1,PARM=&GNCP,TYPE=A                     03650000