         MACRO
*********************************************************************
* MAKE MF=(E,PRMLST) FOR SIEMENS
*********************************************************************
&NAME    ARLCALL &PROC,&PARMS
         LCLC  &OPERAND
         LCLA  &PRMNUM
         LCLA  &OFFSET
&PRMNUM  SETA  1
&OFFSET  SETA  0
.LOOP    ANOP
&OPERAND SETC  '&SYSLIST(2,&PRMNUM)'
         AIF   ('&OPERAND'(1,1) EQ '(').REG
         LA    R1,&OPERAND
         AGO   .NREG
.REG     ANOP
         LR    R1,&OPERAND
.NREG    ANOP
         ST    R1,PRMLST+&OFFSET
&OFFSET  SETA  &OFFSET+4
&PRMNUM  SETA  &PRMNUM+1
         AIF   (&PRMNUM LE N'&SYSLIST(2)).LOOP
         LA    R1,PRMLST
         L     R15,=V(&PROC)
         BALR  R14,R15
         MEND
