         MACRO                                                          00010000
&NAME    CTSAATH &AUTH=OFF                                              00020000
.********************************************************************** 00030000
.****                                                              **** 00040000
.****       CTSA AUTHORIZATION SVC CALL                            **** 00050000
.****                                                              **** 00060000
.****       CONTROL-SA  RELEASE 1.2.1                              **** 00070000
.****                                                              **** 00080000
.****       LICENSED MATERIAL - NEW DIMENSION SOFTWARE LTD.        **** 00090000
.****                                                              **** 00100000
.********************************************************************** 00110000
.*                                                                      00120000
.*       NO LABEL IF NOT REQUIRED                                       00130000
.*                                                                      00140000
         AIF   ('&NAME' EQ '').NOLABEL                                  00150000
&NAME    DS    0H                                                       00160000
.NOLABEL ANOP                                                           00170000
.*                                                                      00180000
.*       CHECK OPCODE                                                   00190000
.*                                                                      00200000
         AIF   ('&AUTH' EQ 'ON').AUTHON                                 00210000
         AIF   ('&AUTH' EQ 'OFF').AUTHOFF                               00220000
         MNOTE 8,'ILLEGAL AUTH PARAMETER'                               00230000
         AGO   .AUTHEND                                                 00240000
.*                                                                      00250000
.*       SET AUTHORIATION ON                                            00260000
.*                                                                      00270000
.AUTHON  ANOP                                                           00280000
         LA    0,21                                                     00290000
         SVC   144                                                      00300000
         AGO   .AUTHEND                                                 00310000
.*                                                                      00320000
.*       SET AUTHORIATION OFF                                           00330000
.*                                                                      00340000
.AUTHOFF ANOP                                                           00350000
         LA    0,22                                                     00360000
         SVC   144                                                      00370000
         AGO   .AUTHEND                                                 00380000
.*                                                                      00390000
.*       FINISHED                                                       00400000
.*                                                                      00410000
.AUTHEND ANOP                                                           00420000
         MEND                                                           00430000
