         MACRO
         ARLKEYSR  &PRF=REC,&DSECT=YES,&NAME=RECAREA
         AIF  ('&DSECT' NE 'YES').CONT1
&NAME    DSECT
         AGO    .CONT2
.CONT1   ANOP
&NAME    EQU    *
.CONT2   ANOP
&PRF.USRID    DC    CL12' '             USER ID
&PRF.TYPE     DC    CL2' '              TYPE OF USER ID
&PRF.DESKY    DC    CL8' '              USER DES KEY
&PRF.USRNM    DC    CL20' '             USER NAME
&PRF.PUBKY    DS    CL64                USER PUBLIC KEY
&PRF.DSIG     DS    CL64
&PRF.CERID    DC    CL12' '             CERTIFIER ID
&PRF.TERM     DC    CL8' '              TERMINAL ID
&PRF.PRT      DC    CL8' '              PRINTER ID
&PRF.BORDS    DS    0CL24
&PRF.BID1     DC    CL8' '              BOARD ID
&PRF.BID2     DC    CL8' '              BOARD ID
&PRF.BID3     DC    CL8' '              BOARD ID
&PRF.APPLS    DC    CL64' '             AUTH. APPLICATION TABLE
&PRF.LGTM     DS    CL8' '              LAST LOGON TIME
&PRF.FLAGS    DC    XL2'8000'           RECORD STATUS FLAGS (F F U)
&PRF.FIL1     DS    CL216               FOR FUTURE USE 232
&PRF.RLEN     EQU   *-&PRF.USRID
         MEND
