         MACRO                                                          00010000
&NAME    H2DAL  &VERB=,&TXTPP=,&FLAG1=,&FLAG2=,&RBP='4(,1)',&HELP=NO,  +00020000
               &MF=I,&RBNAME=                                           00030000
.*                                                                      00040000
.*-------------                                                         00050000
.*       SET  SYMBOL  DEFINITIONS                                       00060000
.*-------------                                                         00070000
         GBLA  &H2DLRTA                      RETURNS FROM H2DALSCN      00080000
         GBLC  &H2DLRTC                      RETURNS FROM H2DALSCN      00090000
         GBLB  &H2DLERR                      RETURNS FROM H2DLSCN       00100000
         LCLA  &N,&K,&I                                                 00110000
         LCLB  &B(32),&BNORBP                                           00120000
         LCLC  &VC,&FL1(2),&FL2(4),&TPP,&RTPP,&C                        00130000
         LCLC  &CRBP,&CRBPR                                             00140000
.*-------------                                                         00150000
.*       PRINT HELP .DOCUMANTATION                                      00160000
.*-------------                                                         00170000
         AIF   ('&HELP' EQ 'NO').OVHELP                                 00180000
*---------------------------------------------------------------------* 00190000
*        D Y N A M I C    A L L O C A T I O N    M A C R O            * 00200000
*        H 2 D A L                                                    * 00210000
*        THIS MACRO DEFINES/MODIFIES SVC99 REQUEST BLOCK (S99RB)      * 00220000
*        AND SVC99 REQUEST BLOCK POINTER (S99RBP).                    * 00230000
*                                                                     * 00240000
*        MACROS INVOKED BY THIS MACRO:                                * 00250000
*        H2DALSCN - TRANSLATES A GIVEN VALUE.                         * 00260000
*                                                                     * 00270000
*        MACRO PARAMETERS:                                            * 00280000
*        &HELP=   - CONTROLS HELP DOCUMENTATION PRINTOUT;             * 00290000
*                   &HELP=YES    - PRINT;                             * 00300000
*                   &HELP=NO     - DO NOT PRINT;                      * 00310000
*                   DEFAULT IS &HELP=NO.                              * 00320000
*        &VERB=   - DETERMINES VERB CODE (S99VERB);                   * 00330000
*                   &VERB=AL     - DSNAME ALLOCATION;                 * 00340000
*                   &VERB=UN     - UNALLOCATION;                      * 00350000
*                   &VERB=CC     - CONCATENATION;                     * 00360000
*                   &VERB=DC     - DECONCATENATION;                   * 00370000
*                   &VERB=RI     - REMOVE IN-USE;                     * 00380000
*                   &VERB=DN     - DDNAME ALLOCATION;                 * 00390000
*                   &VERB=IN     - INFORMATION RETRIEVAL;             * 00400000
*                   DEFAULT IS A BINARY ZERO IN S99VERB FIELD.        * 00410000
*        &TXTPP=  - POINTER TO TEXT UNIT POINTERS LIST (S99TXTPP);    * 00420000
*                   &TXTPP=SYMBOL - SYMBOL IS THE LABEL OF T.U.P.L.;  * 00430000
*                   &TXTPP=(REG)  - REG IS REGISTER NOTATION WHICH    * 00440000
*                                   POINTS TO T.U.P.L.; INVALID       * 00450000
*                                   WHEN MF=L;                        * 00460000
*                   DEFAULT IS NO POINTER.                            * 00470000
*        &FLAG1=  - ONE OR MORE OF THE FOLLOWING INDICATIONS (S99FLAG1) 00480000
*                   ONCNV,NOCNV,NOMNT,JBSYS;                          * 00490000
*                   DEFAULT IS NO FLAG.                                 00500000
*        &FLAG2=  - ONE OR MORE OF THE FOLLOWING INDICATIONS (S99FLAG2) 00510000
*                   WTVOL,WTDSN,NORES,WTUNT,OFFLN,TIONQ,CATLG,        * 00520000
*                   MOUNT,UDEVT,PCINT;                                * 00530000
*                   DEFAULT IS NO FLAG.                               * 00540000
*        &RBP=    - REQUEST BLOCK POINTER;                            * 00550000
*                   &RBP=NO      - RBP HANDLING IS SUPPRESSED;        * 00560000
*                             MF=L - RBP IS NOT DEFINED               * 00570000
*                             MF=E - RBP IS NOT UPDATED               * 00580000
*                   &RBP='TEXT' OR                                    * 00590000
*                   &RBP=SYMBOL  - TEXT OR SYMBOL IS RB ADDRESS       * 00600000
*                   &RBP=(REG)   - REG IS A REGISTER NOTATION.        * 00610000
*                                  REG CONTAINS RB ADDRESS.           * 00620000
*                             MF=E - ADDRESS IS STORED IN RBP.        * 00630000
*                   DEFAULT IS &RBP='4(,1)'                           * 00640000
*                   &RBP IS VALID WITH MF=L OR MF=E;                  * 00650000
*                             INVALID OTHERWISE.                      * 00660000
*        &MF=     - MACRO FORMAT:                                     * 00670000
*                   &MF=I - DEFINE AND MODIFY S99RB & S99RBP AND CALL * 00680000
*                           SVC99;                                    * 00690000
*                   &MF=L - DEFINE S99RB & S99RBP ;                   * 00700000
*                   &MF=(E,SYMBOL) OR                                 * 00710000
*                   &MF=(E,(REG)) -MODIFY S99RB & S99RBP AND CALL     * 00720000
*                           SVC99. SYMBOL IS RBP ADDRESS. REG         * 00730000
*                           CONTAINS RBP ADDRESS. REG EQUAL TO "1"    * 00740000
*                           INHIBITS GENERATING OF "LR 1,REG"           00750000
*        &RBNAME   - LABEL FOR RB ORIGIN.                               00760000
*        REGISTERS USED BY THIS MACRO: REG0, REG1, REG14;             * 00770000
*                                                                     * 00780000
*---------------------------------------------------------------------* 00790000
.OVHELP  ANOP                                                           00800000
.*-------------                                                         00810000
.*       ANALYZE  RBP                                                   00820000
.*-------------                                                         00830000
         AIF   ('&RBP' EQ 'NO').ANLRBPN                                 00840000
&K       SETA  K'&RBP                                                   00850000
         AIF   ('&RBP'(1,1) EQ '(' AND &K GT 2).ANLRBPR                 00860000
         AIF   ('&RBP'(1,1) EQ '''' AND &K GT 2).ANLRBPA                00870000
&CRBP    SETC  '&RBP'                                                   00880000
         AGO   .ANLORBP                                                 00890000
.ANLRBPA ANOP                                                           00900000
&CRBP    SETC  '&RBP'(2,&K-2)                                           00910000
         AGO   .ANLORBP                                                 00920000
.ANLRBPR ANOP                                                           00930000
&CRBPR   SETC  '&RBP'(2,&K-2)                                           00940000
         AGO   .ANLORBP                                                 00950000
.ANLRBPN ANOP                                                           00960000
&BNORBP  SETB  1                                                        00970000
.ANLORBP ANOP                                                           00980000
.*-------------                                                         00990000
.*       ANALYZE  VERB  CODE                                            01000000
.*-------------                                                         01010000
      H2DALSCN VERB,                                                   +01020000
               (,00),(AL,01),(UN,02),(CC,03),(DC,04),(RI,05),(DN,06),  +01030000
               (IN,07),                                                +01040000
               PARM=&VERB,RET=C,MSG=YES                                 01050000
&VC      SETC  '&H2DLRTC'                    IF VALID VERB, VC=VERB     01060000
.*                                           IF INVALID VERB, VC=''     01070000
.*-------------                                                         01080000
.*       ANALYZE  FLAGS1                                                01090000
.*-------------                                                         01100000
         AIF   (T'&FLAG1  EQ 'O').ANLFL1D                               01110000
&N       SETA  N'&FLAG1                                                 01120000
&I       SETA  1                                                        01130000
.ANLFL1L ANOP                                                           01140000
      H2DALSCN FLAG1,                                                  +01150000
               (ONCNV,1),(NOCNV,2),(NOMNT,3),(JBSYS,4),                +01160000
               PARM=&FLAG1(&I),RET=A,MSG=YES                            01170000
         AIF   (&H2DLERR).ANLFL1N                                       01180000
&B(&H2DLRTA) SETB 1                                                     01190000
.ANLFL1N ANOP                                                           01200000
&I       SETA  &I+1                                                     01210000
         AIF   (&I LE &N).ANLFL1L                                       01220000
&FL1(1)  SETC  '&B(1)&B(2)&B(3)&B(4)&B(5)&B(6)&B(7)&B(8)'               01230000
&FL1(2)  SETC  '00000000'                                               01240000
         AGO   .ANLOFL1                                                 01250000
.ANLFL1D ANOP                                                           01260000
&FL1(1)  SETC  '00000000'                                               01270000
&FL1(2)  SETC  '00000000'                                               01280000
.ANLOFL1 ANOP                                                           01290000
.*-------------                                                         01300000
.*       ANALYZE  FLAGS2                                                01310000
.*-------------                                                         01320000
         AIF   (T'&FLAG2 EQ 'O').ANLFL2D                                01330000
&I       SETA  1                                                        01340000
.ANLFL2Z ANOP                                CLEAR LCLB VECTOR &B(32)   01350000
&B(&I)   SETB  0                                                        01360000
&I       SETA  &I+1                                                     01370000
         AIF   (&I LE 32).ANLFL2Z                                       01380000
&N       SETA  N'&FLAG2                                                 01390000
&I       SETA  1                                                        01400000
.ANLFL2L ANOP                                                           01410000
      H2DALSCN FLAG2,                                                  +01420000
               (WTVOL,1),(WTDSN,2),(NORES,3),(WTUNT,4),(OFFLN,5),      +01430000
               (TIONQ,6),(CATLG,7),(MOUNT,8),(UDEVT,9),(PCINT,10),     +01440000
               PARM=&FLAG2(&I),RET=A,MSG=YES                            01450000
         AIF   (&H2DLERR).ANLFL2N                                       01460000
&B(&H2DLRTA) SETB 1                                                     01470000
.ANLFL2N ANOP                                                           01480000
&I       SETA  &I+1                                                     01490000
         AIF   (&I LE &N).ANLFL2L                                       01500000
&FL2(1)  SETC  '&B(1)&B(2)&B(3)&B(4)&B(5)&B(6)&B(7)&B(8)'               01510000
&FL2(2)  SETC  '&B(9)&B(10).000000'                                     01520000
&FL2(3)  SETC  '00000000'                                               01530000
&FL2(4)  SETC  '00000000'                                               01540000
         AGO   .ANLOFL2                                                 01550000
.ANLFL2D ANOP                                                           01560000
&FL2(1)  SETC  '00000000'                                               01570000
&FL2(2)  SETC  '00000000'                                               01580000
&FL2(3)  SETC  '00000000'                                               01590000
&FL2(4)  SETC  '00000000'                                               01600000
.ANLOFL2 ANOP                                                           01610000
.*-------------                                                         01620000
.*       ANALYZE  TXTPP  PARMAETER                                      01630000
.*-------------                                                         01640000
&TPP     SETC  '*-*'                         DEFAULT VALUE              01650000
&RTPP    SETC  ''                            DEFAULT VALUE              01660000
&K       SETA  K'&TXTPP                                                 01670000
         AIF   (&K EQ 0).ANLOTXP                                        01680000
         AIF   ('&TXTPP'(1,1) EQ '(' AND &K GT 2).ANLTXPR               01690000
&TPP     SETC  '&TXTPP'                                                 01700000
         AGO   .ANLOTXP                                                 01710000
.ANLTXPR ANOP                                                           01720000
&RTPP    SETC  '&TXTPP'(2,&K-2)                                         01730000
.ANLOTXP ANOP                                                           01740000
.*-------------                                                         01750000
.*       DIVERT  ACCORDING  TO  MF  PARAMETER                           01760000
.*-------------                                                         01770000
         AIF   ('&MF' EQ 'I').MFI                                       01780000
         AIF   ('&MF' EQ 'L').MFL                                       01790000
         AIF   ('&MF(1)' EQ 'E' AND N'&MF EQ 2).MFE                     01800000
         AGO   .ERINVMF                                                 01810000
.*-------------                                                         01820000
.*       MF=I -- DEFINE  S99RB+P , MODIFY  IT , AND CALL  SVC  99       01830000
.*-------------                                                         01840000
.MFI     ANOP                                                           01850000
         CNOP  0,4                                                      01860000
&NAME    BAL   1,*+28 -  BRANCH AROUND S99RBP & S99RB                   01870000
         DC    X'80',AL3(*+3) -  REQUEST BLOCK POINTER                  01880000
&RBNAME  DS    0F -  REQUEST BLOCK ORIGIN                               01890000
         DC    AL1(20) -  LENGTH                                        01900000
         DC    XL1'&VC' -  VERB CODE                                    01910000
         DC    BL2'&FL1(1)&FL1(2)' -  FLAGS1                            01920000
         DC    XL2'0' -  ERROR CODE                                     01930000
         DC    XL2'0' -  INFORMATION REASON CODE                        01940000
         DC    A(&TPP) -  TEXT POINTERS ADDRESS                         01950000
         DC    A(0) -  RESERVED                                         01960000
         DC    BL4'&FL2(1)&FL2(2)&FL2(3)&FL2(4)' -  FLAGS2              01970000
         AIF   ('&RTPP' EQ '').MFISVC                                   01980000
         ST    &RTPP,*-12 -  STORE TEXT POINTER ADDRESS IN S99RB        01990000
.MFISVC  ANOP                                                           02000000
         SVC   99 -  CALL DYNAMIC ALLOCATION                            02010000
         AIF   ('&CRBP' NE '4(,1)').ERRBP                               02020000
         MEXIT                                                          02030000
.*-------------                                                         02040000
.*       MF=L -- DEFINE  S99RB  &  S99RBP                               02050000
.*-------------                                                         02060000
.MFL     ANOP                                                           02070000
&NAME    DS    0F -                                                     02080000
         AIF   (&BNORBP).MFLNRBP                                        02090000
         DC    X'80',AL3(*+3) -  REQUEST BLOCK POINTER                  02100000
.MFLNRBP ANOP                                                           02110000
&RBNAME  DS    0F -  REQUEST BLOCK ORIGIN                               02120000
         DC    AL1(20) -  LENGTH                                        02130000
         DC    XL1'&VC' -  VERB CODE                                    02140000
         DC    BL2'&FL1(1)&FL1(2)' -  FLAGS1                            02150000
         DC    XL2'0' -  ERROR CODE                                     02160000
         DC    XL2'0' -  INFORMATION REASON CODE                        02170000
         DC    A(&TPP) -  TEXT POINTERS ADDRESS                         02180000
         DC    A(0) -  RESERVED                                         02190000
         DC    BL4'&FL2(1)&FL2(2)&FL2(3)&FL2(4)' -  FLAGS2              02200000
         AIF   (NOT &BNORBP AND '&CRBP' NE '4(,1)').ERRBP               02210000
         AIF   ('&RTPP' NE '').ERRTPL                                   02220000
         MEXIT                                                          02230000
.*-------------                                                         02240000
.*       MF=E -- MODIFY  S99RBP  &  S99RB  AND  CALL  SVC  99           02250000
.*-------------                                                         02260000
.MFE     ANOP                                                           02270000
&NAME    DS    0H -  OPTIONALLY MODIFY S99RBP & S99RB, AND CALL SVC99   02280000
.*                                           SET REG1 ON RBP            02290000
&K       SETA  K'&MF(2)                                                 02300000
         AIF   ('&MF(2)'(1,1) EQ '(' AND &K GT 2).MFELREG               02310000
         LA    1,&MF(2) -  ON REQUEST BLOCK POINTER                     02320000
         AGO   .MFEOL                                                   02330000
.MFELREG ANOP                                                           02340000
&C       SETC  '&MF(2)'(2,&K-2)                                         02350000
         AIF   ('&C' EQ '1').MFEOL                                      02360000
         LR    1,&C -  ON REQUEST BLOCK POINTER                         02370000
.MFEOL   ANOP                                                           02380000
.*                                           UPDATE RBP;SET REG14 ON RB 02390000
         AIF   (&BNORBP).MFELR                                          02400000
         AIF   ('&CRBPR' NE '').MFERREG                                 02410000
         LA    14,&CRBP -  ON REQUEST BLOCK                             02420000
         AGO   .MFESR                                                   02430000
.MFERREG ANOP                                                           02440000
         AIF   ('&CRBPR' EQ '14').MFESR                                 02450000
         LR    14,&CRBPR -  ON REQUEST BLOCK                            02460000
.MFESR   ANOP                                                           02470000
         ST    14,0(,1) -  STORE REQUEST BLOCK POINTER                  02480000
         OI    0(1),X'80'                                        BV0379 02490000
         AGO   .MFEOR                                                   02500000
.MFELR   ANOP                                                           02510000
.*                                           NO UPDATE- SKIP.           02520000
         AIF  (T'&VERB EQ 'O'  AND  T'&TXTPP EQ 'O'  AND               +02530000
               T'&FLAG1 EQ 'O'  AND  T'&FLAG2 EQ 'O').MFEOR             02540000
         L     14,0(,1) -  RESTORE REQUEST BLOCK POINTER                02550000
.MFEOR   ANOP                                                           02560000
.*                                           UPDATE VERB                02570000
         AIF   ('&VERB' EQ '').MFEOV                                    02580000
         MVI   1(14),X'&VC' -  MOVE VERB CODE IN REQUEST BLOCK          02590000
.MFEOV   ANOP                                                           02600000
.*                                           UPDATE FLAGS1              02610000
         AIF   ('&FLAG1' EQ '').MFEOFL1                                 02620000
         MVI   2(14),BL1'&FL1(1)' -  MOVE FLAGS1 IN REQUEST BLOCK       02630000
.MFEOFL1 ANOP                                                           02640000
.*                                           UPDATE TXT PTR PTR         02650000
         AIF   ('&TPP' NE '*-*').MFEAT                                  02660000
         AIF   ('&RTPP' NE '').MFERT                                    02670000
         AGO   .MFEOT                                                   02680000
.MFEAT   ANOP                                                           02690000
         LA    0,&TPP -  ON LIST OF TEXT UNIT PTRS                      02700000
         ST    0,8(,14) -  STORE ADDRESS OF LIST OF TEXT UNIT PTRS      02710000
         AGO   .MFEOT                                                   02720000
.MFERT   ANOP                                                           02730000
         ST    &RTPP,8(,14) -  STORE ADDRESS OF LIST OF TEXT UNIT PTRS  02740000
.MFEOT   ANOP                                                           02750000
.*                                           UPDATE FLAGS2              02760000
         AIF   ('&FLAG2' EQ '').MFEOFL2                                 02770000
         MVI   16(14),BL1'&FL2(1)' -  MOVE FLAGS2 IN REQUEST BLOCK      02780000
         MVI   17(14),BL1'&FL2(2)' -  MOVE FLAGS2 IN REQUEST BLOCK      02790000
.MFEOFL2 ANOP                                                           02800000
.*                                           CALL DYNAMIC ALLOCATION    02810000
         SVC   99 -  CALL DYNAMIC ALLOCATION                            02820000
         MEXIT                                                          02830000
.*-------------                                                         02840000
.*       ERRORS  HANDLING                                               02850000
.*-------------                                                         02860000
.ERRBP   ANOP                                                           02870000
         MNOTE 8,'*** H2DAL *** RBP=&RBP IS INVALID WITH MF=&MF'        02880000
         MEXIT                                                          02890000
.ERRTPL  ANOP                                                           02900000
         MNOTE 8,'*** H2DAL *** TXTPP=&TXTPP IS INVALID WITH MF=L'      02910000
         MEXIT                                                          02920000
.ERINVMF ANOP                                                           02930000
         MNOTE 8,'*** H2DAL *** MF=&MF IS INVALID'                      02940000
         MEND                                                           02950000
